contingency/peak_load/100pc/TNB_DUMA_EXP_SEQVOLTAGES.CSV
Bus,  V1,  p.u.,Base kV, V2, %V2/V1, V0, %V0/V1, Vresidual, %NEMA
"PPU_DUMA_33KV",    18289.9,   0.95997,    33.00, 8.93771E-006, 4.887E-008, 1.23938E-006, 6.776E-009, 3.71815E-006, 6.509E-009
"PPU_DUMA_11KV",    4743.11,   0.74685,    11.00, 2.45746E-006, 5.181E-008, 1.29115E-007, 2.722E-009, 3.87344E-007, 6.522E-009
"RPPLNGI2",    4868.77,   0.76663,    11.00, 2.52237E-006, 5.181E-008, 1.31997E-007, 2.711E-009, 3.95989E-007, 6.517E-009
"PDTJLNMASJID",    4965.75,    0.7819,    11.00, 2.57246E-006, 5.18E-008, 1.34172E-007, 2.702E-009, 4.02515E-007, 6.514E-009
"BELLA",    5031.68,   0.79228,    11.00, 2.60652E-006, 5.18E-008, 1.35629E-007, 2.696E-009, 4.06887E-007, 6.512E-009
"PSTPDGN",    5065.02,   0.79753,    11.00, 2.62374E-006, 5.18E-008, 1.3636E-007, 2.692E-009, 4.0908E-007, 6.511E-009
"PAMDRA",    4757.32,   0.74908,    11.00, 2.46481E-006, 5.181E-008, 1.29479E-007, 2.722E-009, 3.88435E-007, 6.521E-009
"DUMA4",    4805.53,   0.75668,    11.00, 2.48976E-006, 5.181E-008, 1.46351E-007, 3.045E-009, 4.39051E-007, 6.521E-009
"PLSDRA",    4912.31,   0.77349,    11.00, 2.54499E-006, 5.181E-008, 1.77772E-007, 3.619E-009, 5.33314E-007, 6.519E-009
"SSU_UPTWRES_IR1",    4927.81,   0.77593,    11.00, 2.55299E-006, 5.181E-008, 1.78229E-007, 3.617E-009, 5.34687E-007, 6.518E-009
"ATRIA_1",     4928.3,   0.77601,    11.00, 2.55323E-006, 5.181E-008, 1.33212E-007, 2.703E-009, 3.99635E-007, 6.518E-009
"HAWKER",     4958.8,   0.78081,    11.00, 2.56899E-006, 5.181E-008, 1.35063E-007, 2.724E-009, 4.05188E-007, 6.517E-009
"PRMTE",     4839.3,   0.76199,    11.00, 2.507E-006, 5.181E-008, 1.62613E-007, 3.36E-009, 4.87838E-007, 6.515E-009
"PRMTA",    4856.65,   0.76472,    11.00, 2.51595E-006, 5.18E-008, 1.63106E-007, 3.358E-009, 4.89318E-007, 6.515E-009
"PMONTB",    4872.68,   0.76725,    11.00, 2.52423E-006, 5.18E-008, 1.67631E-007, 3.44E-009, 5.02892E-007, 6.514E-009
"DUMA7",    4795.59,   0.75511,    11.00, 2.48461E-006, 5.181E-008, 1.25994E-007, 2.627E-009, 3.77979E-007, 6.521E-009
"HAUS",    4913.01,    0.7736,    11.00, 2.5453E-006, 5.181E-008, 4.71113E-007, 9.589E-009, 1.41334E-006, 6.518E-009
"DUMA6",    5248.22,   0.82638,    11.00, 2.7185E-006, 5.18E-008, 2.16872E-006, 4.132E-008, 6.50616E-006, 6.509E-009
"DUMA13",    5566.21,   0.87645,    11.00, 2.88281E-006, 5.179E-008, 4.02162E-006, 7.225E-008, 1.20648E-005, 6.502E-009
"SSU_DUMA5_IM2",    5606.13,   0.88274,    11.00, 2.90344E-006, 5.179E-008, 4.04414E-006, 7.214E-008, 1.21324E-005, 6.501E-009
"PLNGI_B",    4816.28,   0.75837,    11.00, 2.49533E-006, 5.181E-008, 1.30668E-007, 2.713E-009, 3.92005E-007, 6.521E-009
"PLNGI_D",    4855.24,    0.7645,    11.00, 2.51551E-006, 5.181E-008, 1.31478E-007, 2.708E-009, 3.94432E-007, 6.521E-009
"PDTLITRAK",    5100.57,   0.80313,    11.00, 2.64233E-006, 5.18E-008, 1.39615E-007, 2.737E-009, 4.18844E-007, 6.515E-009
"DUMA12",    5253.37,   0.82719,    11.00, 2.72136E-006, 5.18E-008, 1.44064E-007, 2.742E-009, 4.3219E-007, 6.513E-009
"TMNGH4",    5404.72,   0.85102,    11.00, 2.79967E-006, 5.18E-008, 1.91779E-007, 3.548E-009, 5.75335E-007, 6.511E-009
"SSU_TMEGAH3_IR1",    5465.53,    0.8606,    11.00, 2.83114E-006, 5.18E-008, 2.11573E-007, 3.871E-009, 6.34717E-007, 6.51E-009
"TMNGH2",    5491.11,   0.86463,    11.00, 2.84437E-006, 5.18E-008, 2.20087E-007, 4.008E-009, 6.60258E-007, 6.51E-009
"SPRK9",    5021.48,   0.79068,    11.00, 2.60118E-006, 5.18E-008, 1.35807E-007, 2.705E-009, 4.07421E-007, 6.511E-009
"BOMBA",    5038.46,   0.79335,    11.00, 2.60995E-006, 5.18E-008, 1.39838E-007, 2.775E-009, 4.19511E-007, 6.511E-009
"SPRK8",     5081.1,   0.80007,    11.00, 2.63198E-006, 5.18E-008, 1.50263E-007, 2.957E-009, 4.50788E-007, 6.51E-009
"SSU_UPTWRES_IM2",    4790.48,   0.75431,    11.00, 2.48193E-006, 5.181E-008, 1.42702E-007, 2.979E-009, 4.28105E-007, 6.52E-009
"MAYBANK",    4862.92,   0.76571,    11.00, 2.51941E-006, 5.181E-008, 1.44409E-007, 2.97E-009, 4.33226E-007, 6.519E-009
"DUMA8",    4876.83,    0.7679,    11.00, 2.52661E-006, 5.181E-008, 1.47814E-007, 3.031E-009, 4.4344E-007, 6.519E-009
"SSU_DSARCNTR_IR1",    4780.51,   0.75273,    11.00, 2.47682E-006, 5.181E-008, 1.29899E-007, 2.717E-009, 3.89697E-007, 6.521E-009
"DUMA9",    4973.35,    0.7831,    11.00, 2.57647E-006, 5.181E-008, 1.34306E-007, 2.701E-009, 4.02916E-007, 6.516E-009
"DUMA1",    5070.61,   0.79841,    11.00, 2.62674E-006, 5.18E-008, 1.36427E-007, 2.691E-009, 4.09278E-007, 6.514E-009
"ELITE",    5105.86,   0.80396,    11.00, 2.64496E-006, 5.18E-008, 1.37186E-007, 2.687E-009, 4.11557E-007, 6.513E-009
"DUMA10",    4914.57,   0.77384,    11.00, 2.5462E-006, 5.181E-008, 1.32788E-007, 2.702E-009, 3.98364E-007, 6.52E-009
"BALAIPOLIS",    4916.39,   0.77413,    11.00, 2.54715E-006, 5.181E-008, 1.32827E-007, 2.702E-009, 3.98479E-007, 6.52E-009
"PPU_DUMA_VCB1",          0,         0,    33.00,          0,        0,          0,        0,          0,        0
